data/projects/mackelroy/volts.csv
Bus, BasekV, Node1, Magnitude1, Angle1, pu1, Node2, Magnitude2, Angle2, pu2, Node3, Magnitude3, Angle3, pu3
"EQ_SOURCE_BUS", 115, 1,    39441.2,   -0.8,   0.59404, 2,    39503.8, -120.7,   0.59498, 3,    39491.2,  119.2,   0.59479
"BUS1001", 12.47, 1,    8102.48,  -33.4,    1.1254, 2,    8120.11, -152.9,    1.1279, 3,    8130.06,   87.0,    1.1292
"BUS1002", 12.47, 1,    8088.48,  -33.5,    1.1235, 2,    8100.51, -152.9,    1.1251, 3,    8114.06,   86.9,     1.127
"BUS1003", 12.47, 1,    8087.84,  -33.5,    1.1234, 2,    8099.87, -152.9,    1.1251, 3,    8113.42,   86.9,    1.1269
"BUS1004", 12.47, 1,    8086.82,  -33.5,    1.1232, 2,    8097.22, -153.0,    1.1247, 3,    8112.11,   86.9,    1.1268
"BUS1005", 12.47, 1,    8085.96,  -33.6,    1.1231, 2,    8095.35, -153.0,    1.1244, 3,    8111.07,   86.8,    1.1266
"BUS1006", 12.47, 1,    8084.22,  -33.6,    1.1229, 2,    8090.93, -153.0,    1.1238, 3,    8108.86,   86.8,    1.1263
"BUS1007", 12.47, 1,    8084.15,  -33.6,    1.1229, 2,    8090.17, -153.0,    1.1237, 0, 0, 0, 0
"BUS1008", 12.47, 1,    8083.53,  -33.6,    1.1228, 2,    8089.71, -153.0,    1.1236, 3,    8107.91,   86.8,    1.1262
"BUS1009", 12.47, 1,    8082.29,  -33.6,    1.1226, 2,    8087.19, -153.0,    1.1233, 3,    8106.03,   86.8,    1.1259
"BUS1010", 12.47, 1,    8082.25,  -33.6,    1.1226, 2,    8087.15, -153.0,    1.1233, 3,    8105.99,   86.8,    1.1259
"BUS1011", 12.47, 1,    8082.22,  -33.6,    1.1226, 2,    8086.99, -153.0,    1.1233, 3,    8105.84,   86.8,    1.1259
"BUS1012", 12.47, 1,    8082.27,  -33.6,    1.1226, 2,    8086.75, -153.0,    1.1232, 3,    8105.65,   86.8,    1.1259
"BUS1013", 12.47, 1,    8082.51,  -33.6,    1.1226, 2,    8086.17, -153.0,    1.1231, 3,    8104.47,   86.8,    1.1257
"BUS1014", 12.47, 2,    8085.87, -153.0,    1.1231, 0, 0, 0, 0, 0, 0, 0, 0
"BUS1015", 12.47, 2,    8085.77, -153.0,    1.1231, 0, 0, 0, 0, 0, 0, 0, 0
"BUS1016", 12.47, 3,    8102.68,   86.8,    1.1254, 0, 0, 0, 0, 0, 0, 0, 0
"BUS1017", 12.47, 3,    8102.55,   86.8,    1.1254, 0, 0, 0, 0, 0, 0, 0, 0
"BUS2001", 12.47, 1,    8102.48,  -33.4,    1.1254, 2,    8120.11, -152.9,    1.1279, 3,    8130.06,   87.0,    1.1292
"BUS2002", 12.47, 1,    8072.54,  -33.5,    1.1213, 2,     8082.6, -153.0,    1.1227, 3,    8102.16,   86.8,    1.1254
"BUS2003", 12.47, 1,     8051.6,  -33.7,    1.1183, 2,    8059.85, -153.3,    1.1195, 3,    8086.64,   86.6,    1.1232
"BUS2004", 12.47, 1,    8038.88,  -33.8,    1.1166, 2,    8046.04, -153.4,    1.1176, 3,     8077.3,   86.5,    1.1219
"BUS2005", 12.47, 1,    8033.83,  -33.9,    1.1159, 2,    8040.57, -153.5,    1.1168, 3,     8073.6,   86.5,    1.1214
"BUS2006", 12.47, 1,    8031.55,  -33.9,    1.1156, 2,     8038.1, -153.5,    1.1165, 3,    8071.93,   86.4,    1.1212
"BUS2007", 12.47, 1,    8031.09,  -33.9,    1.1155, 0, 0, 0, 0, 0, 0, 0, 0
"BUS2008", 12.47, 1,    8030.88,  -33.9,    1.1155, 0, 0, 0, 0, 0, 0, 0, 0
"BUS2009", 12.47, 1,    8031.04,  -33.9,    1.1155, 0, 0, 0, 0, 0, 0, 0, 0
"BUS2010", 12.47, 1,    8029.04,  -33.9,    1.1152, 2,    8035.08, -153.6,    1.1161, 3,    8070.05,   86.4,    1.1209
"BUS2011", 12.47, 1,    8025.03,  -34.0,    1.1147, 2,    8030.24, -153.6,    1.1154, 3,    8067.05,   86.4,    1.1205
"BUS2012", 12.47, 1,    8017.82,  -34.0,    1.1137, 2,    8021.54, -153.7,    1.1142, 3,    8061.69,   86.3,    1.1197
"BUS2013", 12.47, 1,    8017.82,  -34.0,    1.1137, 2,    8021.54, -153.7,    1.1142, 3,    8061.69,   86.3,    1.1197
"BUS2014", 12.47, 1,     8017.5,  -34.0,    1.1136, 2,    8020.78, -153.7,    1.1141, 3,    8062.23,   86.3,    1.1198
"BUS2015", 12.47, 2,    8020.66, -153.7,     1.114, 0, 0, 0, 0, 0, 0, 0, 0
"BUS2016", 12.47, 1,    8017.31,  -34.0,    1.1136, 2,    8020.32, -153.7,     1.114, 3,    8062.56,   86.3,    1.1199
"BUS2017", 12.47, 1,    8017.31,  -34.0,    1.1136, 2,    8019.76, -153.7,    1.1139, 3,    8062.74,   86.3,    1.1199
"BUS2018", 12.47, 1,    8017.31,  -34.0,    1.1136, 2,    8019.07, -153.7,    1.1138, 3,    8062.97,   86.3,    1.1199
"BUS2019", 12.47, 1,    8017.23,  -34.0,    1.1136, 2,    8020.89, -153.7,    1.1141, 3,    8061.12,   86.3,    1.1197
"BUS2020", 12.47, 2,       8020, -153.7,     1.114, 0, 0, 0, 0, 0, 0, 0, 0
"BUS2021", 12.47, 1,    8016.68,  -34.0,    1.1135, 2,    8020.29, -153.7,     1.114, 3,    8060.56,   86.3,    1.1196
"BUS2022", 12.47, 3,    8059.52,   86.3,    1.1194, 0, 0, 0, 0, 0, 0, 0, 0
"BUS2023", 12.47, 3,    8058.98,   86.3,    1.1194, 0, 0, 0, 0, 0, 0, 0, 0
"BUS2024", 12.47, 3,    8057.69,   86.3,    1.1192, 0, 0, 0, 0, 0, 0, 0, 0
"BUS2025", 12.47, 3,    8057.19,   86.3,    1.1191, 0, 0, 0, 0, 0, 0, 0, 0
"BUS2026", 12.47, 1,    8016.68,  -34.0,    1.1135, 2,    8020.29, -153.7,     1.114, 3,    8060.56,   86.3,    1.1196
"BUS2027", 12.47, 1,    8011.42,  -34.1,    1.1128, 2,    8015.46, -153.8,    1.1133, 3,    8056.47,   86.2,     1.119
"BUS2028", 12.47, 1,    8009.98,  -34.1,    1.1126, 2,    8015.05, -153.8,    1.1133, 3,     8055.8,   86.2,    1.1189
"BUS2029", 12.47, 1,    8009.45,  -34.1,    1.1125, 2,    8014.81, -153.8,    1.1132, 3,    8055.49,   86.2,    1.1189
"BUS2030", 12.47, 1,    8008.94,  -34.1,    1.1124, 2,    8014.69, -153.8,    1.1132, 3,    8055.27,   86.2,    1.1189
"BUS2031", 12.47, 1,    8008.51,  -34.1,    1.1124, 2,    8014.83, -153.8,    1.1132, 3,    8055.27,   86.2,    1.1189
"BUS2032", 12.47, 1,     8009.6,  -34.1,    1.1125, 2,    8013.54, -153.8,    1.1131, 3,    8055.02,   86.2,    1.1188
"BUS2033", 12.47, 1,    8006.08,  -34.1,     1.112, 2,    8009.85, -153.9,    1.1125, 3,    8052.24,   86.2,    1.1184
"BUS2034", 12.47, 1,    8005.98,  -34.1,     1.112, 2,    8009.76, -153.9,    1.1125, 3,    8052.14,   86.2,    1.1184
"BUS2035", 12.47, 1,    8004.17,  -34.2,    1.1118, 2,    8007.85, -153.9,    1.1123, 3,    8050.74,   86.2,    1.1182
"BUS2036", 12.47, 1,    8002.31,  -34.2,    1.1115, 2,     8005.9, -153.9,     1.112, 3,    8049.29,   86.1,     1.118
"BUS2037", 12.47, 1,    8001.39,  -34.2,    1.1114, 2,    8004.93, -153.9,    1.1119, 3,    8048.57,   86.1,    1.1179
"BUS2038", 12.47, 1,     7999.2,  -34.2,    1.1111, 2,    8002.63, -153.9,    1.1115, 3,    8046.86,   86.1,    1.1177
"BUS2039", 12.47, 1,    7989.83,  -34.3,    1.1098, 2,     7992.8, -154.0,    1.1102, 3,    8039.54,   86.0,    1.1167
"BUS2040", 12.47, 1,     7989.1,  -34.3,    1.1097, 2,    7992.07, -154.1,    1.1101, 3,    8038.81,   86.0,    1.1166
"BUS2041", 12.47, 1,    7989.03,  -34.3,    1.1097, 2,       7992, -154.1,    1.1101, 3,    8038.73,   86.0,    1.1166
"BUS2042", 12.47, 1,    7989.13,  -34.3,    1.1097, 2,    7991.96, -154.0,    1.1101, 3,    8038.93,   86.0,    1.1166
"BUS2043", 12.47, 1,    7986.13,  -34.3,    1.1093, 2,     7988.3, -154.1,    1.1096, 3,    8036.35,   86.0,    1.1162
"BUS2044", 12.47, 1,    7980.05,  -34.3,    1.1084, 2,    7980.81, -154.1,    1.1085, 3,     8031.2,   86.0,    1.1155
"BUS2045", 12.47, 2,    7977.72, -154.1,    1.1081, 0, 0, 0, 0, 0, 0, 0, 0
"BUS2046", 12.47, 2,    7976.76, -154.1,     1.108, 0, 0, 0, 0, 0, 0, 0, 0
"BUS2047", 12.47, 2,    7976.61, -154.1,    1.1079, 0, 0, 0, 0, 0, 0, 0, 0
"BUS2048", 12.47, 2,    7975.87, -154.1,    1.1078, 0, 0, 0, 0, 0, 0, 0, 0
"BUS2049", 12.47, 1,    7979.72,  -34.3,    1.1084, 2,     7980.2, -154.1,    1.1084, 3,    8029.77,   86.0,    1.1153
"BUS2050", 12.47, 1,    7979.31,  -34.3,    1.1083, 2,    7979.62, -154.1,    1.1083, 3,    8028.65,   86.0,    1.1152
"BUS2051", 12.47, 1,    7978.77,  -34.3,    1.1082, 2,    7978.97, -154.1,    1.1083, 3,    8027.66,   86.0,     1.115
"BUS2052", 12.47, 1,    7978.15,  -34.3,    1.1081, 2,    7978.34, -154.1,    1.1082, 3,    8027.03,   86.0,    1.1149
"BUS2053", 12.47, 1,    7973.03,  -34.3,    1.1074, 2,    7977.26, -154.1,     1.108, 3,    8027.87,   86.0,    1.1151
"BUS2054", 12.47, 1,    7972.02,  -34.3,    1.1073, 2,    7977.59, -154.1,    1.1081, 3,    8027.87,   86.0,    1.1151
"BUS2055", 12.47, 1,    7971.23,  -34.3,    1.1072, 2,    7977.85, -154.1,    1.1081, 3,    8027.88,   86.0,    1.1151
"BUS2056", 12.47, 1,    7970.91,  -34.3,    1.1071, 2,    7977.95, -154.1,    1.1081, 3,    8027.88,   86.0,    1.1151
"BUS2057", 12.47, 1,    7969.62,  -34.3,     1.107, 2,    7972.23, -154.1,    1.1073, 3,    8024.97,   86.0,    1.1146
"BUS2058", 12.47, 1,     7967.8,  -34.3,    1.1067, 2,    7970.39, -154.1,    1.1071, 3,    8023.12,   86.0,    1.1144
"BUS2059", 12.47, 1,    7969.62,  -34.3,     1.107, 2,    7970.78, -154.1,    1.1071, 3,    8025.45,   86.0,    1.1147
"BUS2060", 12.47, 1,    7969.61,  -34.3,     1.107, 2,    7970.44, -154.1,    1.1071, 3,    8025.56,   86.0,    1.1147
"BUS3001", 12.47, 1,    8102.48,  -33.4,    1.1254, 2,    8120.11, -152.9,    1.1279, 3,    8130.06,   87.0,    1.1292
"BUS3003", 12.47, 1,    7981.79,  -33.9,    1.1087, 2,    8042.95, -153.3,    1.1171, 3,    8026.57,   86.6,    1.1149
"BUS3002", 12.47, 1,    7981.72,  -33.9,    1.1086, 2,    8042.88, -153.3,    1.1171, 3,    8026.49,   86.6,    1.1149
"BUS3004", 12.47, 1,    7981.89,  -33.9,    1.1087, 2,    8043.05, -153.3,    1.1172, 3,    8026.66,   86.6,    1.1149
"BUS3005", 12.47, 1,    7877.46,  -34.4,    1.0942, 2,     7976.1, -153.6,    1.1079, 3,    7936.81,   86.3,    1.1024
"BUS3006", 12.47, 1,    7877.24,  -34.4,    1.0941, 2,    7975.88, -153.6,    1.1078, 3,     7936.6,   86.3,    1.1024
"BUS3007", 12.47, 1,    7877.08,  -34.4,    1.0941, 2,    7975.72, -153.6,    1.1078, 3,    7936.45,   86.3,    1.1024
"BUS3008", 12.47, 1,     7872.5,  -34.4,    1.0935, 2,    7972.82, -153.7,    1.1074, 3,    7931.51,   86.3,    1.1017
"BUS3009", 12.47, 1,    7871.22,  -34.5,    1.0933, 0, 0, 0, 0, 0, 0, 0, 0
"BUS3010", 12.47, 1,    7869.18,  -34.5,     1.093, 0, 0, 0, 0, 0, 0, 0, 0
"BUS3011", 12.47, 1,    7868.03,  -34.5,    1.0928, 0, 0, 0, 0, 0, 0, 0, 0
"BUS3012", 12.47, 1,    7867.32,  -34.5,    1.0928, 0, 0, 0, 0, 0, 0, 0, 0
"BUS3013", 12.47, 2,    7972.28, -153.7,    1.1073, 0, 0, 0, 0, 0, 0, 0, 0
"BUS3014", 12.47, 2,    7971.74, -153.7,    1.1073, 0, 0, 0, 0, 0, 0, 0, 0
"BUS3015", 12.47, 1,    7862.39,  -34.6,    1.0921, 2,    7964.66, -153.8,    1.1063, 3,    7919.13,   86.2,    1.0999
"BUS3016", 12.47, 2,     7963.6, -153.8,    1.1061, 0, 0, 0, 0, 0, 0, 0, 0
"BUS3017", 12.47, 2,    7962.79, -153.8,     1.106, 0, 0, 0, 0, 0, 0, 0, 0
"BUS3018", 12.47, 3,    7917.53,   86.2,    1.0997, 0, 0, 0, 0, 0, 0, 0, 0
"BUS3019", 12.47, 3,    7915.64,   86.1,    1.0995, 0, 0, 0, 0, 0, 0, 0, 0
"BUS3020", 12.47, 3,    7914.18,   86.1,    1.0993, 0, 0, 0, 0, 0, 0, 0, 0
"BUS3021", 12.47, 3,    7913.61,   86.1,    1.0992, 0, 0, 0, 0, 0, 0, 0, 0
"BUS3022", 12.47, 1,    7852.73,  -34.7,    1.0907, 2,    7958.69, -153.8,    1.1054, 3,    7908.88,   86.1,    1.0985
"BUS3023", 12.47, 1,    7851.43,  -34.7,    1.0905, 0, 0, 0, 0, 0, 0, 0, 0
"BUS3024", 12.47, 1,    7849.93,  -34.7,    1.0903, 0, 0, 0, 0, 0, 0, 0, 0
"BUS3025", 12.47, 1,    7849.14,  -34.7,    1.0902, 0, 0, 0, 0, 0, 0, 0, 0
"BUS3026", 12.47, 1,     7851.2,  -34.7,    1.0905, 0, 0, 0, 0, 0, 0, 0, 0
"BUS3027", 12.47, 1,    7848.51,  -34.7,    1.0901, 0, 0, 0, 0, 0, 0, 0, 0
"BUS3028", 12.47, 1,    7847.38,  -34.7,      1.09, 0, 0, 0, 0, 0, 0, 0, 0
"BUS3029", 12.47, 1,    7846.91,  -34.7,    1.0899, 0, 0, 0, 0, 0, 0, 0, 0
"BUS3030", 12.47, 1,    7845.31,  -34.8,    1.0897, 2,    7950.56, -153.9,    1.1043, 3,     7899.2,   86.0,    1.0972
"BUS3035", 12.47, 1,    7844.74,  -34.8,    1.0896, 2,    7949.42, -153.9,    1.1042, 3,    7899.75,   86.0,    1.0973
"BUS3036", 12.47, 1,    7843.36,  -34.8,    1.0894, 2,    7946.52, -154.0,    1.1038, 3,     7901.3,   86.0,    1.0975
"BUS3037", 12.47, 1,    7842.69,  -34.8,    1.0893, 2,     7945.1, -154.0,    1.1036, 3,    7902.11,   86.0,    1.0976
"BUS3038", 12.47, 1,    7841.52,  -34.8,    1.0892, 2,    7942.53, -154.0,    1.1032, 3,    7903.66,   86.0,    1.0978
"BUS3039", 12.47, 1,    7840.49,  -34.8,     1.089, 2,    7940.19, -154.1,    1.1029, 3,    7905.17,   86.0,     1.098
"BUS3053", 12.47, 1,    7839.39,  -34.8,    1.0889, 2,    7937.64, -154.1,    1.1025, 3,    7906.91,   86.0,    1.0982
"BUS3054", 12.47, 1,    7839.33,  -34.8,    1.0889, 2,    7937.58, -154.1,    1.1025, 3,    7906.85,   86.0,    1.0982
"BUS3055", 12.47, 2,     7904.3, -154.3,    1.0979, 0, 0, 0, 0, 0, 0, 0, 0
"BUS3056", 12.47, 2,    7902.89, -154.3,    1.0977, 0, 0, 0, 0, 0, 0, 0, 0
"BUS3057", 12.47, 2,    7901.28, -154.3,    1.0975, 0, 0, 0, 0, 0, 0, 0, 0
"BUS3058", 12.47, 2,    7900.01, -154.3,    1.0973, 0, 0, 0, 0, 0, 0, 0, 0
"BUS3059", 12.47, 2,    7898.51, -154.3,    1.0971, 0, 0, 0, 0, 0, 0, 0, 0
"BUS3060", 12.47, 2,    7898.26, -154.3,     1.097, 0, 0, 0, 0, 0, 0, 0, 0
"BUS3061", 12.47, 2,    7898.04, -154.3,     1.097, 0, 0, 0, 0, 0, 0, 0, 0
"BUS3062", 12.47, 2,    7898.14, -154.3,     1.097, 0, 0, 0, 0, 0, 0, 0, 0
"BUS3063", 12.47, 2,    7895.74, -154.3,    1.0967, 0, 0, 0, 0, 0, 0, 0, 0
"BUS3064", 12.47, 2,    7894.19, -154.3,    1.0965, 0, 0, 0, 0, 0, 0, 0, 0
"BUS3065", 12.47, 2,    7892.79, -154.3,    1.0963, 0, 0, 0, 0, 0, 0, 0, 0
"BUS3066", 12.47, 2,    7892.25, -154.3,    1.0962, 0, 0, 0, 0, 0, 0, 0, 0
"BUS3067", 12.47, 2,     7891.4, -154.3,    1.0961, 0, 0, 0, 0, 0, 0, 0, 0
"BUS3040", 12.47, 1,    7846.07,  -34.8,    1.0898, 2,    7949.49, -153.9,    1.1042, 3,    7897.16,   85.9,    1.0969
"BUS3044", 12.47, 3,    7896.62,   85.9,    1.0968, 0, 0, 0, 0, 0, 0, 0, 0
"BUS3045", 12.47, 3,    7895.91,   85.9,    1.0967, 0, 0, 0, 0, 0, 0, 0, 0
"BUS3041", 12.47, 3,    7896.49,   85.9,    1.0968, 0, 0, 0, 0, 0, 0, 0, 0
"BUS3042", 12.47, 3,    7895.44,   85.9,    1.0967, 0, 0, 0, 0, 0, 0, 0, 0
"BUS3043", 12.47, 3,    7894.83,   85.9,    1.0966, 0, 0, 0, 0, 0, 0, 0, 0
"BUS3046", 12.47, 1,    7845.69,  -34.8,    1.0897, 2,    7949.11, -153.9,    1.1041, 3,    7896.79,   85.9,    1.0968
"BUS3047", 12.47, 1,    7845.61,  -34.8,    1.0897, 2,    7949.04, -153.9,    1.1041, 3,    7896.72,   85.9,    1.0968
"BUS3048", 12.47, 1,    7845.58,  -34.8,    1.0897, 2,       7949, -153.9,    1.1041, 3,    7896.69,   85.9,    1.0968
"BUS3049", 12.47, 1,    7845.42,  -34.8,    1.0897, 2,    7948.84, -153.9,    1.1041, 3,    7896.53,   85.9,    1.0968
"BUS3050", 12.47, 1,    7845.34,  -34.8,    1.0897, 2,    7948.76, -153.9,    1.1041, 3,    7896.45,   85.9,    1.0968
"BUS3051", 12.47, 1,    7845.21,  -34.8,    1.0897, 2,    7948.63, -153.9,     1.104, 3,    7896.33,   85.9,    1.0968
"BUS3052", 12.47, 1,    7845.14,  -34.8,    1.0897, 2,    7948.57, -153.9,     1.104, 3,    7896.26,   85.9,    1.0968
"BUS3031", 12.47, 1,    7840.15,  -34.9,     1.089, 2,    7947.54, -154.0,    1.1039, 3,    7891.67,   85.9,    1.0961
"BUS3032", 12.47, 1,    7834.91,  -35.0,    1.0882, 2,    7944.48, -154.0,    1.1035, 3,    7883.97,   85.8,    1.0951
"BUS3033", 12.47, 1,    7826.95,  -35.1,    1.0871, 2,    7939.87, -154.0,    1.1028, 3,    7872.19,   85.7,    1.0934
"BUS3034", 12.47, 1,    7821.77,  -35.2,    1.0864, 2,     7936.9, -154.1,    1.1024, 3,    7864.47,   85.7,    1.0924
"BUS3068", 12.47, 1,    7818.52,  -35.2,     1.086, 2,    7935.05, -154.1,    1.1022, 3,     7859.6,   85.6,    1.0917
"BUS3069", 12.47, 1,    7818.23,  -35.2,    1.0859, 2,    7934.76, -154.1,    1.1021, 3,    7859.33,   85.6,    1.0916
"BUS3070", 12.47, 1,     7818.1,  -35.2,    1.0859, 2,    7934.63, -154.1,    1.1021, 3,    7859.19,   85.6,    1.0916
"BUS3071", 12.47, 1,    7817.97,  -35.2,    1.0859, 2,    7934.49, -154.1,    1.1021, 3,    7859.06,   85.6,    1.0916
"BUS3072", 12.47, 1,    7817.93,  -35.2,    1.0859, 2,    7934.45, -154.1,    1.1021, 3,    7859.03,   85.6,    1.0916
"BUS3073", 12.47, 1,    7818.23,  -35.2,    1.0859, 2,    7934.76, -154.1,    1.1021, 3,    7859.32,   85.6,    1.0916
"BUS3074", 12.47, 1,    7818.17,  -35.2,    1.0859, 2,    7934.69, -154.1,    1.1021, 3,    7859.26,   85.6,    1.0916
"BUS3075", 12.47, 1,    7814.96,  -35.3,    1.0855, 2,    7933.09, -154.1,    1.1019, 3,    7854.17,   85.6,    1.0909
"BUS3076", 12.47, 1,    7814.96,  -35.3,    1.0855, 2,    7933.09, -154.1,    1.1019, 3,    7854.17,   85.6,    1.0909
"BUS3077", 12.47, 1,    7812.28,  -35.3,    1.0851, 2,    7930.41, -154.2,    1.1015, 3,    7851.59,   85.5,    1.0906
"BUS3078", 12.47, 1,    7812.27,  -35.3,    1.0851, 2,     7930.4, -154.2,    1.1015, 3,    7851.58,   85.5,    1.0906
"BUS3079", 12.47, 1,    7811.94,  -35.3,    1.0851, 2,    7931.69, -154.1,    1.1017, 3,    7849.23,   85.5,    1.0902
"BUS3080", 12.47, 1,    7802.25,  -35.5,    1.0837, 2,    7927.07, -154.2,     1.101, 3,    7833.44,   85.4,     1.088
"BUS3081", 12.47, 1,     7802.2,  -35.5,    1.0837, 2,    7927.01, -154.2,     1.101, 3,    7833.39,   85.4,     1.088
"BUS3082", 12.47, 1,    7793.79,  -35.6,    1.0825, 2,    7923.08, -154.2,    1.1005, 3,    7819.49,   85.3,    1.0861
"BUS3083", 12.47, 1,    7791.39,  -35.6,    1.0822, 0, 0, 0, 0, 0, 0, 0, 0
"BUS3084", 12.47, 1,    7788.01,  -35.7,    1.0817, 0, 0, 0, 0, 0, 0, 0, 0
"BUS3085", 12.47, 1,    7780.17,  -35.7,    1.0806, 0, 0, 0, 0, 0, 0, 0, 0
"BUS3086", 12.47, 1,       7776,  -35.7,    1.0801, 0, 0, 0, 0, 0, 0, 0, 0
"BUS3087", 12.47, 1,    7773.37,  -35.7,    1.0797, 0, 0, 0, 0, 0, 0, 0, 0
"BUS3088", 12.47, 1,    7769.85,  -35.8,    1.0792, 0, 0, 0, 0, 0, 0, 0, 0
"BUS3089", 12.47, 1,    7769.19,  -35.8,    1.0791, 0, 0, 0, 0, 0, 0, 0, 0
"BUS3090", 12.47, 1,    7767.09,  -35.8,    1.0788, 0, 0, 0, 0, 0, 0, 0, 0
"BUS3091", 12.47, 1,    7766.77,  -35.8,    1.0788, 0, 0, 0, 0, 0, 0, 0, 0
"BUS3092", 12.47, 1,    7792.95,  -35.6,    1.0824, 2,    7922.67, -154.2,    1.1004, 3,     7815.6,   85.3,    1.0856
"BUS3093", 12.47, 1,    7790.18,  -35.7,     1.082, 0, 0, 0, 0, 0, 0, 0, 0
"BUS3094", 12.47, 1,    7788.94,  -35.7,    1.0819, 0, 0, 0, 0, 0, 0, 0, 0
"BUS3095", 12.47, 1,    7788.42,  -35.7,    1.0818, 0, 0, 0, 0, 0, 0, 0, 0
"BUS3096", 12.47, 1,    7786.83,  -35.7,    1.0816, 0, 0, 0, 0, 0, 0, 0, 0
"BUS3097", 12.47, 1,    7786.51,  -35.7,    1.0815, 0, 0, 0, 0, 0, 0, 0, 0
"BUS3098", 12.47, 2,    7920.86, -154.2,    1.1002, 0, 0, 0, 0, 0, 0, 0, 0
"BUS3099", 12.47, 2,    7920.04, -154.3,    1.1001, 0, 0, 0, 0, 0, 0, 0, 0
"BUS3100", 12.47, 1,    7793.64,  -35.6,    1.0825, 2,    7922.68, -154.2,    1.1004, 3,    7813.49,   85.3,    1.0853
"BUS3101", 12.47, 3,    7812.35,   85.3,    1.0851, 0, 0, 0, 0, 0, 0, 0, 0
"BUS3102", 12.47, 3,    7811.14,   85.3,    1.0849, 0, 0, 0, 0, 0, 0, 0, 0
"BUS3103", 12.47, 3,    7810.72,   85.3,    1.0849, 0, 0, 0, 0, 0, 0, 0, 0
"BUS3104", 12.47, 3,    7809.92,   85.3,    1.0848, 0, 0, 0, 0, 0, 0, 0, 0
"BUS3105", 12.47, 3,    7808.88,   85.2,    1.0846, 0, 0, 0, 0, 0, 0, 0, 0
"BUS3106", 12.47, 3,    7807.65,   85.2,    1.0845, 0, 0, 0, 0, 0, 0, 0, 0
"BUS3107", 12.47, 1,    7774.65,  -35.7,    1.0799, 2,    7907.08, -154.3,    1.0983, 3,    7794.09,   85.2,    1.0826
"BUS3108", 12.47, 1,    7767.31,  -35.8,    1.0789, 0, 0, 0, 0, 0, 0, 0, 0
"BUS3109", 12.47, 1,    7765.37,  -35.8,    1.0786, 0, 0, 0, 0, 0, 0, 0, 0
"BUS3110", 12.47, 1,    7763.63,  -35.8,    1.0783, 0, 0, 0, 0, 0, 0, 0, 0
"BUS3111", 12.47, 1,    7761.49,  -35.8,    1.0781, 0, 0, 0, 0, 0, 0, 0, 0
"BUS3112", 12.47, 1,    7760.26,  -35.8,    1.0779, 0, 0, 0, 0, 0, 0, 0, 0
"BUS3113", 12.47, 2,    7904.58, -154.3,    1.0979, 0, 0, 0, 0, 0, 0, 0, 0
"BUS3114", 12.47, 2,    7903.66, -154.3,    1.0978, 0, 0, 0, 0, 0, 0, 0, 0
"BUS3115", 12.47, 2,    7902.51, -154.3,    1.0976, 0, 0, 0, 0, 0, 0, 0, 0
"BUS3116", 12.47, 2,    7902.74, -154.3,    1.0977, 0, 0, 0, 0, 0, 0, 0, 0
"BUS3117", 12.47, 2,    7902.55, -154.3,    1.0976, 0, 0, 0, 0, 0, 0, 0, 0
"BUS3118", 12.47, 1,    7748.06,  -35.7,    1.0762, 2,    7882.59, -154.5,    1.0949, 3,    7807.33,   85.2,    1.0844
"BUS3119", 12.47, 2,    7871.49, -154.5,    1.0933, 0, 0, 0, 0, 0, 0, 0, 0
"BUS3120", 12.47, 2,    7869.34, -154.5,     1.093, 0, 0, 0, 0, 0, 0, 0, 0
"BUS3121", 12.47, 2,    7868.52, -154.6,    1.0929, 0, 0, 0, 0, 0, 0, 0, 0
"BUS3122", 12.47, 2,    7868.19, -154.6,    1.0929, 0, 0, 0, 0, 0, 0, 0, 0
"BUS3123", 12.47, 2,    7869.87, -154.5,    1.0931, 0, 0, 0, 0, 0, 0, 0, 0
"BUS3124", 12.47, 2,    7868.85, -154.5,     1.093, 0, 0, 0, 0, 0, 0, 0, 0
"BUS3125", 12.47, 2,    7866.81, -154.6,    1.0927, 0, 0, 0, 0, 0, 0, 0, 0
"BUS3126", 12.47, 2,    7862.32, -154.6,    1.0921, 0, 0, 0, 0, 0, 0, 0, 0
"BUS3127", 12.47, 2,    7859.83, -154.6,    1.0917, 0, 0, 0, 0, 0, 0, 0, 0
"BUS3128", 12.47, 2,    7858.03, -154.6,    1.0915, 0, 0, 0, 0, 0, 0, 0, 0
"BUS3129", 12.47, 2,    7856.51, -154.6,    1.0912, 0, 0, 0, 0, 0, 0, 0, 0
"BUS3130", 12.47, 2,    7855.49, -154.6,    1.0911, 0, 0, 0, 0, 0, 0, 0, 0
"BUS3131", 12.47, 2,    7854.94, -154.6,     1.091, 0, 0, 0, 0, 0, 0, 0, 0
"BUS3132", 12.47, 1,    7736.73,  -35.8,    1.0746, 0, 0, 0, 0, 0, 0, 0, 0
"BUS3133", 12.47, 1,    7733.94,  -35.8,    1.0742, 0, 0, 0, 0, 0, 0, 0, 0
"BUS3134", 12.47, 1,    7730.94,  -35.8,    1.0738, 0, 0, 0, 0, 0, 0, 0, 0
"BUS3135", 12.47, 1,    7729.31,  -35.8,    1.0736, 0, 0, 0, 0, 0, 0, 0, 0
"BUS3136", 12.47, 1,    7727.74,  -35.8,    1.0734, 0, 0, 0, 0, 0, 0, 0, 0
"BUS3137", 12.47, 1,    7731.78,  -35.8,    1.0739, 0, 0, 0, 0, 0, 0, 0, 0
"BUS3138", 12.47, 1,    7730.36,  -35.8,    1.0737, 0, 0, 0, 0, 0, 0, 0, 0
"BUS3139", 12.47, 1,    7730.36,  -35.8,    1.0737, 0, 0, 0, 0, 0, 0, 0, 0
"BUS3140", 12.47, 3,     7782.9,   85.1,     1.081, 0, 0, 0, 0, 0, 0, 0, 0
"BUS3141", 12.47, 3,     7781.9,   85.1,    1.0809, 0, 0, 0, 0, 0, 0, 0, 0
"BUS3142", 12.47, 3,     7780.9,   85.1,    1.0807, 0, 0, 0, 0, 0, 0, 0, 0
"BUS3143", 12.47, 3,    7780.29,   85.1,    1.0807, 0, 0, 0, 0, 0, 0, 0, 0
"BUS3148", 12.47, 3,    7780.68,   85.1,    1.0807, 0, 0, 0, 0, 0, 0, 0, 0
"BUS3149", 12.47, 3,    7777.71,   85.1,    1.0803, 0, 0, 0, 0, 0, 0, 0, 0
"BUS3150", 12.47, 3,    7776.34,   85.1,    1.0801, 0, 0, 0, 0, 0, 0, 0, 0
"BUS3151", 12.47, 3,    7774.99,   85.1,    1.0799, 0, 0, 0, 0, 0, 0, 0, 0
"BUS3152", 12.47, 3,    7773.04,   85.1,    1.0797, 0, 0, 0, 0, 0, 0, 0, 0
"BUS3153", 12.47, 3,    7772.18,   85.1,    1.0795, 0, 0, 0, 0, 0, 0, 0, 0
"BUS3154", 12.47, 3,    7771.79,   85.1,    1.0795, 0, 0, 0, 0, 0, 0, 0, 0
"BUS3155", 12.47, 3,    7770.95,   85.1,    1.0794, 0, 0, 0, 0, 0, 0, 0, 0
"BUS3156", 12.47, 3,    7776.11,   85.1,    1.0801, 0, 0, 0, 0, 0, 0, 0, 0
"BUS3144", 12.47, 3,    7775.27,   85.1,      1.08, 0, 0, 0, 0, 0, 0, 0, 0
"BUS3145", 12.47, 3,    7774.16,   85.1,    1.0798, 0, 0, 0, 0, 0, 0, 0, 0
"BUS3146", 12.47, 3,    7773.42,   85.1,    1.0797, 0, 0, 0, 0, 0, 0, 0, 0
"BUS3147", 12.47, 3,    7772.98,   85.1,    1.0796, 0, 0, 0, 0, 0, 0, 0, 0
"BUS3157", 12.47, 3,     7773.9,   85.1,    1.0798, 0, 0, 0, 0, 0, 0, 0, 0
"BUS3158", 12.47, 3,    7770.59,   85.1,    1.0793, 0, 0, 0, 0, 0, 0, 0, 0
"BUS3159", 12.47, 3,    7768.59,   85.1,     1.079, 0, 0, 0, 0, 0, 0, 0, 0
"BUS3160", 12.47, 3,    7767.48,   85.1,    1.0789, 0, 0, 0, 0, 0, 0, 0, 0
"BUS3161", 12.47, 3,    7766.79,   85.1,    1.0788, 0, 0, 0, 0, 0, 0, 0, 0
"BUS3162", 12.47, 3,    7766.54,   85.1,    1.0788, 0, 0, 0, 0, 0, 0, 0, 0
"BUS1", 12.47, 1,    8102.48,  -33.4,    1.1254, 2,    8120.11, -152.9,    1.1279, 3,    8130.06,   87.0,    1.1292
"BUS_FAULT", 12.47, 1,    8102.48,  -33.4,    1.1254, 2,    8120.11, -152.9,    1.1279, 3,    8130.06,   87.0,    1.1292
"T_BUS1006_L", 0.208, 1,    120.463,  -45.0,    1.0031, 2,     121.95, -153.0,    1.0155, 0, 0, 0, 0
"T_BUS1007_L", 0.208, 1,    121.556,  -41.7,    1.0122, 2,    121.939, -153.0,    1.0154, 0, 0, 0, 0
"T_BUS1011_L", 0.208, 1,    118.649,  -35.9,   0.98801, 2,    118.649,  144.1,   0.98801, 0, 0, 0, 0
"T_BUS1012_L", 0.208, 1,    116.178, -155.0,   0.96743, 2,    116.178,   25.0,   0.96743, 0, 0, 0, 0
"T_BUS1014_L", 0.208, 1,     120.77, -153.8,    1.0057, 2,     120.77,   26.2,    1.0057, 0, 0, 0, 0
"T_BUS1015_L", 0.208, 1,     120.38, -154.1,    1.0024, 2,     120.38,   25.9,    1.0024, 0, 0, 0, 0
"T_BUS1016_L", 0.208, 1,    118.341,   85.2,   0.98545, 2,    118.341,  -94.8,   0.98545, 0, 0, 0, 0
"T_BUS1017_L", 0.208, 1,    116.727,   84.9,   0.97201, 2,    116.727,  -95.1,   0.97201, 0, 0, 0, 0
"T_BUS2008_L", 0.208, 1,    118.112,  -36.1,   0.98354, 2,    118.112,  143.9,   0.98354, 0, 0, 0, 0
"T_BUS2009_L", 0.208, 1,    119.393,  -35.1,   0.99421, 2,    119.393,  144.9,   0.99421, 0, 0, 0, 0
"T_BUS2014_L", 0.208, 1,    115.503, -155.6,   0.96182, 2,    115.503,   24.4,   0.96182, 0, 0, 0, 0
"T_BUS2015_L", 0.208, 1,    119.098, -155.0,   0.99175, 2,    119.098,   25.0,   0.99175, 0, 0, 0, 0
"T_BUS2016_L", 0.208, 1,     118.45, -155.5,   0.98635, 2,     118.45,   24.5,   0.98635, 0, 0, 0, 0
"T_BUS2017_L", 0.208, 1,    117.932, -155.9,   0.98204, 2,    117.932,   24.1,   0.98204, 0, 0, 0, 0
"T_BUS2018_L", 0.208, 1,     118.16, -155.7,   0.98394, 2,     118.16,   24.3,   0.98394, 0, 0, 0, 0
"T_BUS2020_L", 0.208, 1,    118.436, -155.5,   0.98623, 2,    118.436,   24.5,   0.98623, 0, 0, 0, 0
"T_BUS2022_L", 0.208, 1,    118.795,   84.3,   0.98922, 2,    118.795,  -95.7,   0.98922, 0, 0, 0, 0
"T_BUS2023_L", 0.208, 1,    120.059,   85.5,   0.99975, 2,    120.059,  -94.5,   0.99975, 0, 0, 0, 0
"T_BUS2024_L", 0.208, 1,    118.562,   84.2,   0.98728, 2,    118.562,  -95.8,   0.98728, 0, 0, 0, 0
"T_BUS2025_L", 0.208, 1,    118.756,   84.3,    0.9889, 2,    118.756,  -95.7,    0.9889, 0, 0, 0, 0
"T_BUS2028_L", 0.208, 1,    119.004,  -35.4,   0.99097, 2,    119.004,  144.6,   0.99097, 0, 0, 0, 0
"T_BUS2031_L", 0.208, 1,    117.645,  -36.3,   0.97965, 2,    117.645,  143.7,   0.97965, 0, 0, 0, 0
"T_BUS2045_L", 0.208, 1,    117.647, -155.6,   0.97967, 2,    117.647,   24.4,   0.97967, 0, 0, 0, 0
"T_BUS2046_L", 0.208, 1,    114.733, -156.4,    0.9554, 2,    114.733,   23.6,    0.9554, 0, 0, 0, 0
"T_BUS2047_L", 0.208, 1,    114.491, -156.5,   0.95339, 2,    114.491,   23.5,   0.95339, 0, 0, 0, 0
"T_BUS2048_L", 0.208, 1,    114.868, -156.3,   0.95652, 2,    114.868,   23.7,   0.95652, 0, 0, 0, 0
"T_BUS2049_L", 0.208, 1,    115.204,   84.0,   0.95932, 2,    115.204,  -96.0,   0.95932, 0, 0, 0, 0
"T_BUS2050_L", 0.208, 1,    115.631,   84.1,   0.96288, 2,    115.631,  -95.9,   0.96288, 0, 0, 0, 0
"T_BUS2051_L", 0.208, 1,    113.914,   83.5,   0.94858, 2,    113.914,  -96.5,   0.94858, 0, 0, 0, 0
"T_BUS2054_L", 0.208, 1,    113.608,  -36.6,   0.94604, 2,    113.608,  143.4,   0.94604, 0, 0, 0, 0
"T_BUS2055_L", 0.208, 1,     113.72,  -37.0,   0.94697, 2,     113.72,  143.0,   0.94697, 0, 0, 0, 0
"T_BUS2056_L", 0.208, 1,    117.338,  -36.4,    0.9771, 2,    117.338,  143.6,    0.9771, 0, 0, 0, 0
"T_BUS2059_L", 0.208, 1,    118.314, -155.4,   0.98522, 2,    118.314,   24.6,   0.98522, 0, 0, 0, 0
"T_BUS2060_L", 0.208, 1,    118.193, -155.5,   0.98422, 2,    118.193,   24.5,   0.98422, 0, 0, 0, 0
"T_BUS3009_L", 0.208, 1,    110.604,  -37.3,   0.92101, 2,    110.604,  142.7,   0.92101, 0, 0, 0, 0
"T_BUS3010_L", 0.208, 1,    112.247,  -36.7,    0.9347, 2,    112.247,  143.3,    0.9347, 0, 0, 0, 0
"T_BUS3011_L", 0.208, 1,    110.429,  -37.3,   0.91956, 2,    110.429,  142.7,   0.91956, 0, 0, 0, 0
"T_BUS3012_L", 0.208, 1,    112.666,  -37.0,   0.93819, 2,    112.666,  143.0,   0.93819, 0, 0, 0, 0
"T_BUS3013_L", 0.208, 1,    116.992, -156.0,   0.97421, 2,    116.992,   24.0,   0.97421, 0, 0, 0, 0
"T_BUS3014_L", 0.208, 1,    112.825, -156.2,   0.93951, 2,    112.825,   23.8,   0.93951, 0, 0, 0, 0
"T_BUS3016_L", 0.208, 1,    112.456, -156.4,   0.93644, 2,    112.456,   23.6,   0.93644, 0, 0, 0, 0
"T_BUS3017_L", 0.208, 1,    117.124, -155.9,   0.97531, 2,    117.124,   24.1,   0.97531, 0, 0, 0, 0
"T_BUS3018_L", 0.208, 1,    110.956,   83.2,   0.92395, 2,    110.956,  -96.8,   0.92395, 0, 0, 0, 0
"T_BUS3019_L", 0.208, 1,    111.489,   83.4,   0.92838, 2,    111.489,  -96.6,   0.92838, 0, 0, 0, 0
"T_BUS3020_L", 0.208, 1,    116.607,   84.1,     0.971, 2,    116.607,  -95.9,     0.971, 0, 0, 0, 0
"T_BUS3021_L", 0.208, 1,    111.812,   83.5,   0.93108, 2,    111.812,  -96.5,   0.93108, 0, 0, 0, 0
"T_BUS3023_L", 0.208, 1,    111.887,  -37.4,    0.9317, 2,    111.887,  142.6,    0.9317, 0, 0, 0, 0
"T_BUS3024_L", 0.208, 1,    109.163,  -37.9,   0.90902, 2,    109.163,  142.1,   0.90902, 0, 0, 0, 0
"T_BUS3025_L", 0.208, 1,    112.114,  -37.3,   0.93359, 2,    112.114,  142.7,   0.93359, 0, 0, 0, 0
"T_BUS3026_L", 0.208, 1,    110.139,  -37.6,   0.91714, 2,    110.139,  142.4,   0.91714, 0, 0, 0, 0
"T_BUS3027_L", 0.208, 1,    115.882,  -36.6,   0.96497, 2,    115.882,  143.4,   0.96497, 0, 0, 0, 0
"T_BUS3028_L", 0.208, 1,     115.31,  -37.0,   0.96021, 2,     115.31,  143.0,   0.96021, 0, 0, 0, 0
"T_BUS3029_L", 0.208, 1,     112.35,  -36.8,   0.93556, 2,     112.35,  143.2,   0.93556, 0, 0, 0, 0
"T_BUS3041_L", 0.208, 1,    112.743,   83.3,   0.93883, 2,    112.743,  -96.7,   0.93883, 0, 0, 0, 0
"T_BUS3042_L", 0.208, 1,    112.105,   83.5,   0.93351, 2,    112.105,  -96.5,   0.93351, 0, 0, 0, 0
"T_BUS3043_L", 0.208, 1,    113.116,   83.9,   0.94194, 2,    113.116,  -96.1,   0.94194, 0, 0, 0, 0
"T_BUS3044_L", 0.208, 1,    111.259,   83.2,   0.92647, 2,    111.259,  -96.8,   0.92647, 0, 0, 0, 0
"T_BUS3045_L", 0.208, 1,    111.788,   83.4,   0.93088, 2,    111.788,  -96.6,   0.93088, 0, 0, 0, 0
"T_BUS3056_L", 0.208, 1,    113.079, -156.4,   0.94163, 2,    113.079,   23.6,   0.94163, 0, 0, 0, 0
"T_BUS3057_L", 0.208, 1,    113.762, -156.1,   0.94732, 2,    113.762,   23.9,   0.94732, 0, 0, 0, 0
"T_BUS3058_L", 0.208, 1,    114.096, -156.0,    0.9501, 2,    114.096,   24.0,    0.9501, 0, 0, 0, 0
"T_BUS3059_L", 0.208, 1,    112.589, -156.5,   0.93755, 2,    112.589,   23.5,   0.93755, 0, 0, 0, 0
"T_BUS3060_L", 0.208, 1,    113.058, -156.4,   0.94145, 2,    113.058,   23.6,   0.94145, 0, 0, 0, 0
"T_BUS3061_L", 0.208, 1,    115.549, -155.5,    0.9622, 2,    115.549,   24.5,    0.9622, 0, 0, 0, 0
"T_BUS3062_L", 0.208, 1,    113.855, -156.1,   0.94809, 2,    113.855,   23.9,   0.94809, 0, 0, 0, 0
"T_BUS3063_L", 0.208, 1,    112.459, -156.6,   0.93646, 2,    112.459,   23.4,   0.93646, 0, 0, 0, 0
"T_BUS3064_L", 0.208, 1,    110.204, -157.4,   0.91769, 2,    110.204,   22.6,   0.91769, 0, 0, 0, 0
"T_BUS3065_L", 0.208, 1,    111.927, -156.8,   0.93204, 2,    111.927,   23.2,   0.93204, 0, 0, 0, 0
"T_BUS3066_L", 0.208, 1,    115.149, -155.6,   0.95887, 2,    115.149,   24.4,   0.95887, 0, 0, 0, 0
"T_BUS3067_L", 0.208, 1,    110.006, -157.4,   0.91604, 2,    110.006,   22.6,   0.91604, 0, 0, 0, 0
"T_BUS3083_L", 0.208, 1,    111.618,  -37.7,   0.92946, 2,    111.618,  142.3,   0.92946, 0, 0, 0, 0
"T_BUS3084_L", 0.208, 1,    111.554,  -37.7,   0.92893, 2,    111.554,  142.3,   0.92893, 0, 0, 0, 0
"T_BUS3085_L", 0.208, 1,    108.994,  -38.6,   0.90761, 2,    108.994,  141.4,   0.90761, 0, 0, 0, 0
"T_BUS3086_L", 0.208, 1,    113.265,  -37.1,   0.94318, 2,    113.265,  142.9,   0.94318, 0, 0, 0, 0
"T_BUS3087_L", 0.208, 1,    109.533,  -38.5,    0.9121, 2,    109.533,  141.5,    0.9121, 0, 0, 0, 0
"T_BUS3088_L", 0.208, 1,    109.884,  -38.3,   0.91502, 2,    109.884,  141.7,   0.91502, 0, 0, 0, 0
"T_BUS3089_L", 0.208, 1,     110.85,  -38.0,   0.92307, 2,     110.85,  142.0,   0.92307, 0, 0, 0, 0
"T_BUS3090_L", 0.208, 1,      110.4,  -38.1,   0.91932, 2,      110.4,  141.9,   0.91932, 0, 0, 0, 0
"T_BUS3091_L", 0.208, 1,    114.539,  -37.7,   0.95379, 2,    114.539,  142.3,   0.95379, 0, 0, 0, 0
"T_BUS3093_L", 0.208, 1,    111.139,  -37.9,   0.92548, 2,    111.139,  142.1,   0.92548, 0, 0, 0, 0
"T_BUS3094_L", 0.208, 1,     111.98,  -37.6,   0.93248, 2,     111.98,  142.4,   0.93248, 0, 0, 0, 0
"T_BUS3095_L", 0.208, 1,    109.675,  -38.4,   0.91328, 2,    109.675,  141.6,   0.91328, 0, 0, 0, 0
"T_BUS3096_L", 0.208, 1,    109.966,  -38.3,   0.91571, 2,    109.966,  141.7,   0.91571, 0, 0, 0, 0
"T_BUS3097_L", 0.208, 1,    109.301,  -38.5,   0.91017, 2,    109.301,  141.5,   0.91017, 0, 0, 0, 0
"T_BUS3098_L", 0.208, 1,    111.708, -157.5,   0.93021, 2,    111.708,   22.5,   0.93021, 0, 0, 0, 0
"T_BUS3099_L", 0.208, 1,    112.884, -156.5,      0.94, 2,    112.884,   23.5,      0.94, 0, 0, 0, 0
"T_BUS3101_L", 0.208, 1,    112.159,   83.3,   0.93397, 2,    112.159,  -96.7,   0.93397, 0, 0, 0, 0
"T_BUS3102_L", 0.208, 1,    111.297,   83.0,   0.92679, 2,    111.297,  -97.0,   0.92679, 0, 0, 0, 0
"T_BUS3103_L", 0.208, 1,    111.844,   82.8,   0.93135, 2,    111.844,  -97.2,   0.93135, 0, 0, 0, 0
"T_BUS3104_L", 0.208, 1,    112.877,   81.6,   0.93995, 2,    112.877,  -98.4,   0.93995, 0, 0, 0, 0
"T_BUS3105_L", 0.208, 1,    112.388,   83.4,   0.93587, 2,    112.388,  -96.6,   0.93587, 0, 0, 0, 0
"T_BUS3106_L", 0.208, 1,    113.193,   81.8,   0.94258, 2,    113.193,  -98.2,   0.94258, 0, 0, 0, 0
"T_BUS3108_L", 0.208, 1,    112.678,  -37.3,   0.93829, 2,    112.678,  142.7,   0.93829, 0, 0, 0, 0
"T_BUS3109_L", 0.208, 1,    109.058,  -38.6,   0.90815, 2,    109.058,  141.4,   0.90815, 0, 0, 0, 0
"T_BUS3110_L", 0.208, 1,    110.001,  -38.8,     0.916, 2,    110.001,  141.2,     0.916, 0, 0, 0, 0
"T_BUS3111_L", 0.208, 1,    109.523,  -39.0,   0.91202, 2,    109.523,  141.0,   0.91202, 0, 0, 0, 0
"T_BUS3112_L", 0.208, 1,    109.956,  -38.8,   0.91562, 2,    109.956,  141.2,   0.91562, 0, 0, 0, 0
"T_BUS3114_L", 0.208, 1,    111.279, -157.1,   0.92664, 2,    111.279,   22.9,   0.92664, 0, 0, 0, 0
"T_BUS3115_L", 0.208, 1,    112.598, -157.1,   0.93762, 2,    112.598,   22.9,   0.93762, 0, 0, 0, 0
"T_BUS3116_L", 0.208, 1,    112.192, -156.8,   0.93424, 2,    112.192,   23.2,   0.93424, 0, 0, 0, 0
"T_BUS3117_L", 0.208, 1,    114.298, -156.0,   0.95178, 2,    114.298,   24.0,   0.95178, 0, 0, 0, 0
"T_BUS3120_L", 0.208, 1,    112.319, -156.8,    0.9353, 2,    112.319,   23.2,    0.9353, 0, 0, 0, 0
"T_BUS3121_L", 0.208, 1,    112.457, -156.7,   0.93645, 2,    112.457,   23.3,   0.93645, 0, 0, 0, 0
"T_BUS3122_L", 0.208, 1,    113.155, -156.5,   0.94226, 2,    113.155,   23.5,   0.94226, 0, 0, 0, 0
"T_BUS3123_L", 0.208, 1,    111.282, -157.1,   0.92667, 2,    111.282,   22.9,   0.92667, 0, 0, 0, 0
"T_BUS3124_L", 0.208, 1,    113.582, -156.3,   0.94582, 2,    113.582,   23.7,   0.94582, 0, 0, 0, 0
"T_BUS3125_L", 0.208, 1,    117.006, -155.4,   0.97432, 2,    117.006,   24.6,   0.97432, 0, 0, 0, 0
"T_BUS3126_L", 0.208, 1,    111.551, -157.0,   0.92891, 2,    111.551,   23.0,   0.92891, 0, 0, 0, 0
"T_BUS3127_L", 0.208, 1,     109.47, -157.8,   0.91158, 2,     109.47,   22.2,   0.91158, 0, 0, 0, 0
"T_BUS3128_L", 0.208, 1,    114.665, -155.9,   0.95483, 2,    114.665,   24.1,   0.95483, 0, 0, 0, 0
"T_BUS3129_L", 0.208, 1,    113.024, -156.5,   0.94117, 2,    113.024,   23.5,   0.94117, 0, 0, 0, 0
"T_BUS3130_L", 0.208, 1,    113.684, -156.3,   0.94667, 2,    113.684,   23.7,   0.94667, 0, 0, 0, 0
"T_BUS3131_L", 0.208, 1,    110.277, -157.5,   0.91829, 2,    110.277,   22.5,   0.91829, 0, 0, 0, 0
"T_BUS3132_L", 0.208, 1,    110.325,  -38.5,   0.91869, 2,    110.325,  141.5,   0.91869, 0, 0, 0, 0
"T_BUS3134_L", 0.208, 1,    109.202,  -39.0,   0.90934, 2,    109.202,  141.0,   0.90934, 0, 0, 0, 0
"T_BUS3135_L", 0.208, 1,    109.341,  -38.4,    0.9105, 2,    109.341,  141.6,    0.9105, 0, 0, 0, 0
"T_BUS3136_L", 0.208, 1,    108.466,  -39.3,   0.90321, 2,    108.466,  140.7,   0.90321, 0, 0, 0, 0
"T_BUS3137_L", 0.208, 1,    108.088,  -39.4,   0.90007, 2,    108.088,  140.6,   0.90007, 0, 0, 0, 0
"T_BUS3138_L", 0.208, 1,    108.935,  -39.1,   0.90712, 2,    108.935,  140.9,   0.90712, 0, 0, 0, 0
"T_BUS3139_L", 0.208, 1,    116.425,  -35.8,   0.96949, 2,    116.425,  144.2,   0.96949, 0, 0, 0, 0
"T_BUS3141_L", 0.208, 1,    110.518,   82.7,    0.9203, 2,    110.518,  -97.3,    0.9203, 0, 0, 0, 0
"T_BUS3142_L", 0.208, 1,    111.151,   82.9,   0.92557, 2,    111.151,  -97.1,   0.92557, 0, 0, 0, 0
"T_BUS3143_L", 0.208, 1,    108.515,   82.0,   0.90362, 2,    108.515,  -98.0,   0.90362, 0, 0, 0, 0
"T_BUS3144_L", 0.208, 1,    114.963,   83.8,   0.95731, 2,    114.963,  -96.2,   0.95731, 0, 0, 0, 0
"T_BUS3145_L", 0.208, 1,    111.283,   83.0,   0.92667, 2,    111.283,  -97.0,   0.92667, 0, 0, 0, 0
"T_BUS3146_L", 0.208, 1,     112.21,   83.3,   0.93439, 2,     112.21,  -96.7,   0.93439, 0, 0, 0, 0
"T_BUS3147_L", 0.208, 1,    109.968,   82.5,   0.91572, 2,    109.968,  -97.5,   0.91572, 0, 0, 0, 0
"T_BUS3148_L", 0.208, 1,    111.037,   82.5,   0.92462, 2,    111.037,  -97.5,   0.92462, 0, 0, 0, 0
"T_BUS3149_L", 0.208, 1,    111.627,   83.1,   0.92954, 2,    111.627,  -96.9,   0.92954, 0, 0, 0, 0
"T_BUS3150_L", 0.208, 1,    115.059,   83.5,   0.95812, 2,    115.059,  -96.5,   0.95812, 0, 0, 0, 0
"T_BUS3151_L", 0.208, 1,     115.18,   83.6,   0.95912, 2,     115.18,  -96.4,   0.95912, 0, 0, 0, 0
"T_BUS3152_L", 0.208, 1,    114.893,   83.4,   0.95673, 2,    114.893,  -96.6,   0.95673, 0, 0, 0, 0
"T_BUS3153_L", 0.208, 1,    108.667,   82.1,   0.90489, 2,    108.667,  -97.9,   0.90489, 0, 0, 0, 0
"T_BUS3154_L", 0.208, 1,    114.289,   82.9,    0.9517, 2,    114.289,  -97.1,    0.9517, 0, 0, 0, 0
"T_BUS3155_L", 0.208, 1,    114.219,   82.9,   0.95112, 2,    114.219,  -97.1,   0.95112, 0, 0, 0, 0
"T_BUS3157_L", 0.208, 1,    111.109,   82.5,   0.92522, 2,    111.109,  -97.5,   0.92522, 0, 0, 0, 0
"T_BUS3158_L", 0.208, 1,     110.66,   82.3,   0.92148, 2,     110.66,  -97.7,   0.92148, 0, 0, 0, 0
"T_BUS3159_L", 0.208, 1,    111.112,   82.5,   0.92525, 2,    111.112,  -97.5,   0.92525, 0, 0, 0, 0
"T_BUS3160_L", 0.208, 1,    114.077,   82.8,   0.94994, 2,    114.077,  -97.2,   0.94994, 0, 0, 0, 0
"T_BUS3161_L", 0.208, 1,    114.564,   83.2,   0.95399, 2,    114.564,  -96.8,   0.95399, 0, 0, 0, 0
"T_BUS3162_L", 0.208, 1,    114.491,   83.1,   0.95338, 2,    114.491,  -96.9,   0.95338, 0, 0, 0, 0
"T_BUS1003_L", 0.208, 1,     116.82,  -37.1,   0.97278, 2,    116.994, -156.6,   0.97423, 3,     117.19,   83.3,   0.97586
"T_BUS1004_L", 0.208, 1,    117.805,  -35.1,   0.98098, 2,    117.957, -154.6,   0.98225, 3,    118.174,   85.3,   0.98405
"T_BUS1005_L", 0.208, 1,    116.611,  -35.6,   0.97104, 2,    116.746, -155.0,   0.97217, 3,    116.973,   84.8,   0.97405
"T_BUS1008_L", 0.208, 1,    115.171,  -35.7,   0.95905, 2,    115.259, -155.1,   0.95978, 3,    115.518,   84.7,   0.96194
"T_BUS1009_L", 0.208, 1,    116.771,  -35.6,   0.97237, 2,    116.842, -155.0,   0.97296, 3,    117.114,   84.8,   0.97523
"T_BUS1010_L", 0.208, 1,    117.736,  -34.9,   0.98041, 2,    117.807, -154.3,     0.981, 3,    118.082,   85.5,   0.98329
"T_BUS1013_L", 0.208, 1,    118.261,  -34.7,   0.98478, 2,    118.315, -154.2,   0.98523, 3,    118.583,   85.6,   0.98746
"T_BUS2002_L", 0.208, 1,    116.497,  -39.0,   0.97009, 2,    116.642, -158.5,    0.9713, 3,    116.925,   81.4,   0.97365
"T_BUS2003_L", 0.208, 1,    117.848,  -35.1,   0.98134, 2,    117.969, -154.7,   0.98234, 3,    118.361,   85.2,   0.98561
"T_BUS2005_L", 0.208, 1,    117.981,  -34.9,   0.98245, 2,     118.08, -154.5,   0.98327, 3,    118.565,   85.5,   0.98731
"T_BUS2010_L", 0.208, 1,    118.343,  -34.8,   0.98546, 2,    118.432, -154.4,    0.9862, 3,    118.948,   85.5,    0.9905
"T_BUS2011_L", 0.208, 1,    116.606,  -35.4,     0.971, 2,    116.682, -155.0,   0.97163, 3,    117.217,   85.0,   0.97608
"T_BUS2029_L", 0.208, 1,     116.66,  -35.7,   0.97145, 2,    116.739, -155.4,    0.9721, 3,    117.331,   84.6,   0.97704
"T_BUS2030_L", 0.208, 1,    115.353,  -36.2,   0.96057, 2,    115.436, -155.9,   0.96126, 3,    116.021,   84.1,   0.96612
"T_BUS2032_L", 0.208, 1,    119.303,  -34.6,   0.99345, 2,    119.361, -154.3,   0.99394, 3,    119.979,   85.8,   0.99909
"T_BUS2034_L", 0.208, 1,    116.164,  -35.6,   0.96731, 2,    116.218, -155.3,   0.96777, 3,    116.833,   84.7,   0.97289
"T_BUS2035_L", 0.208, 1,    117.356,  -35.5,   0.97725, 2,     117.41, -155.2,    0.9777, 3,    118.039,   84.9,   0.98293
"T_BUS2037_L", 0.208, 1,    117.435,  -35.2,    0.9779, 2,    117.487, -154.9,   0.97834, 3,    118.128,   85.1,   0.98367
"T_BUS2040_L", 0.208, 1,    116.145,  -38.9,   0.96716, 2,    116.188, -158.7,   0.96752, 3,    116.867,   81.4,   0.97317
"T_BUS2041_L", 0.208, 1,    116.827,  -35.5,   0.97284, 2,    116.871, -155.2,    0.9732, 3,    117.554,   84.9,   0.97889
"T_BUS2042_L", 0.208, 1,    116.549,  -35.8,   0.97052, 2,     116.59, -155.6,   0.97087, 3,    117.275,   84.5,   0.97657
"T_BUS2043_L", 0.208, 1,    115.272,  -36.3,   0.95989, 2,    115.304, -156.1,   0.96015, 3,    115.997,   84.0,   0.96593
"T_BUS2052_L", 0.208, 1,    116.312,  -41.3,   0.96855, 2,    116.315, -161.0,   0.96857, 3,    117.025,   79.0,   0.97448
"T_BUS2053_L", 0.208, 1,     117.47,  -39.4,   0.97819, 2,    117.533, -159.2,   0.97871, 3,    118.278,   80.9,   0.98492
"T_BUS2058_L", 0.208, 1,    116.287,  -38.5,   0.96834, 2,    116.325, -158.3,   0.96865, 3,    117.094,   81.8,   0.97506
"T_BUS3002_L", 0.208, 1,    113.932,  -36.0,   0.94873, 2,    114.805, -155.3,     0.956, 3,    114.571,   84.6,   0.95405
"T_BUS3004_L", 0.208, 1,     117.93,  -34.7,   0.98202, 2,    118.834, -154.0,   0.98955, 3,    118.592,   85.9,   0.98753
"T_BUS3006_L", 0.208, 1,    113.734,  -36.0,   0.94708, 2,    115.158, -155.3,   0.95894, 3,    114.591,   84.7,   0.95422
"T_BUS3007_L", 0.208, 1,    114.566,  -36.1,   0.95401, 2,    116.001, -155.3,   0.96596, 3,     115.43,   84.7,    0.9612
"T_BUS3031_L", 0.208, 1,    113.534,  -36.4,   0.94542, 2,    115.089, -155.5,   0.95837, 3,     114.28,   84.4,   0.95163
"T_BUS3032_L", 0.208, 1,    113.228,  -36.6,   0.94287, 2,    114.812, -155.6,   0.95606, 3,    113.937,   84.2,   0.94877
"T_BUS3033_L", 0.208, 1,    112.357,  -36.9,   0.93561, 2,    113.978, -155.9,   0.94911, 3,    113.006,   83.9,   0.94102
"T_BUS3034_L", 0.208, 1,    112.937,  -36.8,   0.94044, 2,    114.599, -155.7,   0.95428, 3,    113.553,   84.0,   0.94558
"T_BUS3035_L", 0.208, 1,    111.738,  -36.9,   0.93046, 2,    113.229, -156.1,   0.94288, 3,    112.521,   83.8,   0.93698
"T_BUS3036_L", 0.208, 1,    114.226,  -36.1,   0.95118, 2,    115.728, -155.3,   0.96369, 3,    115.069,   84.6,    0.9582
"T_BUS3037_L", 0.208, 1,    113.702,  -36.3,   0.94682, 2,    115.187, -155.5,   0.95918, 3,    114.564,   84.5,   0.95399
"T_BUS3038_L", 0.208, 1,    113.865,  -36.2,   0.94818, 2,    115.332, -155.5,   0.96039, 3,    114.768,   84.5,   0.95569
"T_BUS3039_L", 0.208, 1,    113.601,  -36.3,   0.94597, 2,    115.045, -155.6,     0.958, 3,    114.538,   84.5,   0.95378
"T_BUS3047_L", 0.208, 1,    112.142,  -36.8,   0.93382, 2,     113.62, -155.9,   0.94613, 3,    112.872,   83.9,    0.9399
"T_BUS3048_L", 0.208, 1,    116.192,  -35.5,   0.96755, 2,    117.723, -154.6,    0.9803, 3,    116.949,   85.3,   0.97385
"T_BUS3049_L", 0.208, 1,    114.576,  -36.0,   0.95409, 2,    116.086, -155.1,   0.96667, 3,    115.322,   84.7,   0.96031
"T_BUS3050_L", 0.208, 1,    115.258,  -35.8,   0.95978, 2,    116.778, -154.9,   0.97243, 3,    116.009,   84.9,   0.96603
"T_BUS3051_L", 0.208, 1,    116.243,  -35.5,   0.96797, 2,    117.775, -154.6,   0.98073, 3,        117,   85.3,   0.97428
"T_BUS3052_L", 0.208, 1,    113.954,  -36.2,   0.94892, 2,    115.457, -155.4,   0.96143, 3,    114.697,   84.5,    0.9551
"T_BUS3054_L", 0.208, 1,    116.529,  -35.3,   0.97036, 2,     117.99, -154.6,   0.98252, 3,    117.533,   85.4,   0.97872
"T_BUS3070_L", 0.208, 1,    115.241,  -36.1,   0.95963, 2,    116.959, -155.0,   0.97394, 3,    115.847,   84.8,   0.96468
"T_BUS3071_L", 0.208, 1,    114.362,  -36.4,   0.95232, 2,    116.067, -155.3,   0.96651, 3,    114.964,   84.5,   0.95732
"T_BUS3072_L", 0.208, 1,    114.545,  -36.3,   0.95383, 2,    116.252, -155.2,   0.96805, 3,    115.147,   84.5,   0.95885
"T_BUS3073_L", 0.208, 1,    114.695,  -36.3,   0.95508, 2,    116.404, -155.2,   0.96932, 3,    115.297,   84.6,    0.9601
"T_BUS3074_L", 0.208, 1,    114.505,  -36.3,    0.9535, 2,    116.212, -155.2,   0.96771, 3,    115.107,   84.5,   0.95851
"T_BUS3077_L", 0.208, 1,    114.575,  -40.2,   0.95409, 2,    116.308, -159.1,   0.96851, 3,    115.152,   80.6,   0.95889
"T_BUS3078_L", 0.208, 1,    115.554,  -36.0,   0.96224, 2,    117.301, -154.9,   0.97679, 3,    116.135,   84.8,   0.96708
"T_BUS3081_L", 0.208, 1,    112.733,  -37.1,   0.93874, 2,    114.536, -155.8,   0.95376, 3,    113.183,   83.8,    0.9425
"BUS_XFMR", 12.47, 1,    7763.03,  -33.4,    1.0783, 2,    7779.91, -152.9,    1.0806, 3,    7789.45,   87.0,    1.0819
